Questionable use of curly braces in "b19 mcmp_v 0  v={{mcmp}*v(icn)}"
    Error: undefined symbol in: "(mcmp)*[v](icn)"
Questionable use of curly braces in "b20 alpha_v 0  v={{alpha}*v(icn)}"
    Error: undefined symbol in: "(alpha)*[v](icn)"
Circuit: * Z:\home\jakuleth\Documents\Electronics\Hardware\smps_derivations\ltspice\icg_idg_small_signal_models_combined.asc

B21: Trouble evaluating Laplacian at DC.
B5: Trouble evaluating Laplacian at DC.
B18: Trouble evaluating Laplacian at DC.
B13: Trouble evaluating Laplacian at DC.
WARNING: Less than two connections to node ICG_IRM.  This node is used by B6.
WARNING: Less than two connections to node <ICGBASSO>.  This node is used by B7.
WARNING: Less than two connections to node IOOCHK.  This node is used by B10.
WARNING: Less than two connections to node IDG_IRM.  This node is used by B15.
WARNING: Less than two connections to node <IDGBASSO>.  This node is used by B16.
WARNING: Less than two connections to node MCMP_V.  This node is used by B19.
WARNING: Less than two connections to node ALPHA_V.  This node is used by B20.
WARNING: Less than two connections to node ICG_RCF.  This node is used by B5.
WARNING: Less than two connections to node IDG_RCF.  This node is used by B21.
WARNING: Less than two connections to node MCMP.  This node is used by B22.
WARNING: Less than two connections to node IOODGCK.  This node is used by B23.
WARNING: Less than two connections to node IOODGCK2.  This node is used by B24.
Direct Newton iteration for .op point succeeded.

Date: Sun Mar 15 21:25:09 2020
Total elapsed time: 0.096 seconds.

tnom = 27
temp = 27
method = trap
totiter = 6
traniter = 0
tranpoints = 0
accept = 0
rejected = 0
matrix size = 50
fillins = 0
solver = Normal
Matrix Compiler1:      69 opcodes
Matrix Compiler2: 2.29 KB object code size
